CM Example 2 :	Loaded dipole in free space
CM 		See GetStarted.txt
CE
GW	1	24	0	0	0	0	0	0.25	1.e-3


GW  2 24 -0.6 -0.6 0 0.6 -0.6 0 1.e-3
GW  3 24 -0.6 -0.5 0 0.6 -0.5 0 1.e-3
GW  4 24 -0.6 -0.4 0 0.6 -0.4 0 1.e-3
GW  5 24 -0.6 -0.3 0 0.6 -0.3 0 1.e-3
GW  6 24 -0.6 -0.2 0 0.6 -0.2 0 1.e-3
GW  7 24 -0.6 -0.1 0 0.6 -0.1 0 1.e-3
GW  8 24 -0.6 0 0 0.6 0 0 1.e-3
GW  9 24 -0.6 0.1 0 0.6 0.1 0 1.e-3
GW  10 24 -0.6 0.2 0 0.6 0.2 0 1.e-3
GW  11 24 -0.6 0.3 0 0.6 0.3 0 1.e-3
GW  12 24 -0.6 0.4 0 0.6 0.4 0 1.e-3
GW  13 24 -0.6 0.5 0 0.6 0.5 0 1.e-3
GW  14 24 -0.6 0.6 0 0.6 0.6 0 1.e-3
GW  15 24 -0.6 -0.6  0 -0.6 0.6  0 1.e-3
GW  16 24 -0.5 -0.6  0 -0.5 0.6  0 1.e-3
GW  17 24 -0.4 -0.6  0 -0.4 0.6  0 1.e-3
GW  18 24 -0.3 -0.6  0 -0.3 0.6  0 1.e-3
GW  19 24 -0.2 -0.6  0 -0.2 0.6  0 1.e-3
GW  20 24 -0.1 -0.6  0 -0.1 0.6  0 1.e-3
GW  21 24 0 -0.6  0 0 0.6  0 1.e-3
GW  22 24 0.1 -0.6  0 0.1 0.6  0 1.e-3
GW  23 24 0.2 -0.6  0 0.2 0.6  0 1.e-3
GW  24 24 0.3 -0.6  0 0.3 0.6  0 1.e-3
GW  25 24 0.4 -0.6  0 0.4 0.6  0 1.e-3
GW  26 24 0.5 -0.6  0 0.5 0.6  0 1.e-3
GW  27 24 0.6 -0.6  0 0.6 0.6  0 1.e-3





GE	0
LD	5	1	0	0	58000000
GN	-1
EK
EX	0	1	1	0	1	0	0	0
FR	0	0	0	0	300	0
EN
