CM Example 2 :	Loaded dipole in free space
CM 		See GetStarted.txt
CE
GW	1	24	0	0	0	0	0	0.25	1.e-3


GW  2 12 -0.3 -0.3 0 0.3 -0.3 0 1.e-3
GW  3 12 -0.3 -0.2 0 0.3 -0.2 0 1.e-3
GW  4 12 -0.3 -0.1 0 0.3 -0.1 0 1.e-3
GW  5 12 -0.3 0 0 0.3 0 0 1.e-3
GW  6 12 -0.3 0.1 0 0.3 0.1 0 1.e-3
GW  7 12 -0.3 0.2 0 0.3 0.2 0 1.e-3
GW  8 12 -0.3 0.3 0 0.3 0.3 0 1.e-3
GW  9 12 -0.3 -0.3  0 -0.3 0.3  0 1.e-3
GW  10 12 -0.2 -0.3  0 -0.2 0.3  0 1.e-3
GW  11 12 -0.1 -0.3  0 -0.1 0.3  0 1.e-3
GW  12 12 0 -0.3  0 0 0.3  0 1.e-3
GW  13 12 0.1 -0.3  0 0.1 0.3  0 1.e-3
GW  14 12 0.2 -0.3  0 0.2 0.3  0 1.e-3
GW  15 12 0.3 -0.3  0 0.3 0.3  0 1.e-3





GE	0
LD	5	1	0	0	58000000
GN	-1
EK
EX	0	1	1	0	1	0	0	0
FR	0	0	0	0	300	0
EN
