CM Example 2 :	Loaded dipole in free space
CM 		See GetStarted.txt
CE
GW	1	11	0	0	0	0	0	0.25	1.e-3

GE	0
LD	5	1	0	0	58000000
GN	-1
EK
EX	0	1	1	0	1	0	0
FR	0	0	0	0	300	0
EN
