CM Example 2 :	Loaded dipole in free space
CM 		See GetStarted.txt
CE
GW	1	24	0	0	0	0	0	0.25	1.e-3

GW  2 48 -1.2 -1.2 0 1.2 -1.2 0 1.e-3
GW  3 48 -1.2 -1.1 0 1.2 -1.1 0 1.e-3
GW  4 48 -1.2 -1 0 1.2 -1 0 1.e-3
GW  5 48 -1.2 -0.9 0 1.2 -0.9 0 1.e-3
GW  6 48 -1.2 -0.8 0 1.2 -0.8 0 1.e-3
GW  7 48 -1.2 -0.7 0 1.2 -0.7 0 1.e-3
GW  8 48 -1.2 -0.6 0 1.2 -0.6 0 1.e-3
GW  9 48 -1.2 -0.5 0 1.2 -0.5 0 1.e-3
GW  10 48 -1.2 -0.4 0 1.2 -0.4 0 1.e-3
GW  11 48 -1.2 -0.3 0 1.2 -0.3 0 1.e-3
GW  12 48 -1.2 -0.2 0 1.2 -0.2 0 1.e-3
GW  13 48 -1.2 -0.1 0 1.2 -0.1 0 1.e-3
GW  14 48 -1.2 0 0 1.2 0 0 1.e-3
GW  15 48 -1.2 0.1 0 1.2 0.1 0 1.e-3
GW  16 48 -1.2 0.2 0 1.2 0.2 0 1.e-3
GW  17 48 -1.2 0.3 0 1.2 0.3 0 1.e-3
GW  18 48 -1.2 0.4 0 1.2 0.4 0 1.e-3
GW  19 48 -1.2 0.5 0 1.2 0.5 0 1.e-3
GW  20 48 -1.2 0.6 0 1.2 0.6 0 1.e-3
GW  21 48 -1.2 0.7 0 1.2 0.7 0 1.e-3
GW  22 48 -1.2 0.8 0 1.2 0.8 0 1.e-3
GW  23 48 -1.2 0.9 0 1.2 0.9 0 1.e-3
GW  24 48 -1.2 1 0 1.2 1 0 1.e-3
GW  25 48 -1.2 1.1 0 1.2 1.1 0 1.e-3
GW  26 48 -1.2 1.2 0 1.2 1.2 0 1.e-3
GW  27 48 -1.2 -1.2  0 -1.2 1.2  0 1.e-3
GW  28 48 -1.1 -1.2  0 -1.1 1.2  0 1.e-3
GW  29 48 -1 -1.2  0 -1 1.2  0 1.e-3
GW  30 48 -0.9 -1.2  0 -0.9 1.2  0 1.e-3
GW  31 48 -0.8 -1.2  0 -0.8 1.2  0 1.e-3
GW  32 48 -0.7 -1.2  0 -0.7 1.2  0 1.e-3
GW  33 48 -0.6 -1.2  0 -0.6 1.2  0 1.e-3
GW  34 48 -0.5 -1.2  0 -0.5 1.2  0 1.e-3
GW  35 48 -0.4 -1.2  0 -0.4 1.2  0 1.e-3
GW  36 48 -0.3 -1.2  0 -0.3 1.2  0 1.e-3
GW  37 48 -0.2 -1.2  0 -0.2 1.2  0 1.e-3
GW  38 48 -0.1 -1.2  0 -0.1 1.2  0 1.e-3
GW  39 48 0 -1.2  0 0 1.2  0 1.e-3
GW  40 48 0.1 -1.2  0 0.1 1.2  0 1.e-3
GW  41 48 0.2 -1.2  0 0.2 1.2  0 1.e-3
GW  42 48 0.3 -1.2  0 0.3 1.2  0 1.e-3
GW  43 48 0.4 -1.2  0 0.4 1.2  0 1.e-3
GW  44 48 0.5 -1.2  0 0.5 1.2  0 1.e-3
GW  45 48 0.6 -1.2  0 0.6 1.2  0 1.e-3
GW  46 48 0.7 -1.2  0 0.7 1.2  0 1.e-3
GW  47 48 0.8 -1.2  0 0.8 1.2  0 1.e-3
GW  48 48 0.9 -1.2  0 0.9 1.2  0 1.e-3
GW  49 48 1 -1.2  0 1 1.2  0 1.e-3
GW  50 48 1.1 -1.2  0 1.1 1.2  0 1.e-3
GW  51 48 1.2 -1.2  0 1.2 1.2  0 1.e-3





GE	0
LD	5	1	0	0	58000000
GN	-1
EK
EX	0	1	1	0	1	0	0	0
FR	0	0	0	0	300	0
EN
