CM Example 2 :	Loaded dipole in free space
CM 		See GetStarted.txt
CE
GW	1	40	0	0	0	0	0	0.25	1.e-3
GW	2	20	-0.3	-0.3	0	0.3	-0.3	0	1.e-3
GW	3	20	-0.3	-0.2	0	0.3	-0.2	0	1.e-3
GW	4	20	-0.3	-0.1	0	0.3	-0.1	0	1.e-3
GW	5	20	-0.3	0	0	0.3	0	0	1.e-3
GW	6	20	-0.3	0.1	0	0.3	0.1	0	1.e-3
GW	7	20	-0.3	0.2	0	0.3	0.2	0	1.e-3
GW	8	20	-0.3	0.3	0	0.3	0.3	0	1.e-3
GW  9 20  -0.3 -0.3  0 -0.3 0.3  0 1.e-3

GE	0
LD	5	1	0	0	58000000
GN	-1
EK
EX	0	1	1	0	1	0	0	0
FR	0	0	0	0	300	0
EN
