CM Example 2 :	Loaded dipole in free space
CM 		See GetStarted.txt
CE
GW	1	40	0	0	0	0	0	0.25	1.e-3
GW	2	20	-0.5	-0.5	0	0.5	-0.5	0	1.e-3
GW	3	20	-0.5	-0.3	0	0.5	-0.3	0	1.e-3
GW	4	20	-0.5	0	0	0.5	0	0	1.e-3
GW	5	20	-0.5	0.1	0	0.5	0.1	0	1.e-3
GW	6	20	-0.5	0.5	0	0.5	0.5	0	1.e-3

GW	12	20	-0.5	-0.1	0	0.5	-0.1	0	1.e-3
GW	13	20	-0.5	0.2	0	0.5	0.2	0	1.e-3
GW	14	20	-0.5	0.3	0	0.5	0.3	0	1.e-3
GW	15	20	-0.5	0.4	0	0.5	0.4	0	1.e-3
GW	16	20	-0.5	-0.2	0	0.5	-0.2	0	1.e-3

GE	0
LD	5	1	0	0	58000000
GN	-1
EK
EX	0	1	1	0	1	0	0	0
FR	0	0	0	0	300	0
EN
